Hello World
New line.
New line.
New line.
New line.
New line.
